3
! RI-B2PLYP D3BJ def2-TZVP def2-TZVP/C Opt VERYTIGHTSCF Grid7 FINALGrid7
B -1.073769 -0.085650 -0.000171
O 0.204596 -0.307554 -0.000615
H 0.869173 0.393205 0.000787
3
! RI-B2PLYP D3BJ def2-TZVP def2-TZVP/C Opt VERYTIGHTSCF Grid7 FINALGrid7
B -1.021490 -0.059731 -0.000119
O 0.191234 -0.359752 -0.000720
H 0.830256 0.419483 0.000839
3
! RI-B2PLYP D3BJ def2-TZVP def2-TZVP/C Opt VERYTIGHTSCF Grid7 FINALGrid7
B -0.969207 -0.033816 -0.000068
O 0.177860 -0.411949 -0.000824
H 0.791347 0.445765 0.000892
3
! RI-B2PLYP D3BJ def2-TZVP def2-TZVP/C Opt VERYTIGHTSCF Grid7 FINALGrid7
B -0.916919 -0.007906 -0.000016
O 0.164474 -0.464144 -0.000929
H 0.752445 0.472050 0.000944
3
! RI-B2PLYP D3BJ def2-TZVP def2-TZVP/C Opt VERYTIGHTSCF Grid7 FINALGrid7
B -0.864626 0.017998 0.000036
O 0.151075 -0.516337 -0.001033
H 0.713550 0.498339 0.000997
3
! RI-B2PLYP D3BJ def2-TZVP def2-TZVP/C Opt VERYTIGHTSCF Grid7 FINALGrid7
B -0.811061 0.041802 0.000084
O 0.134141 -0.567931 -0.001136
H 0.676920 0.526129 0.001053
3
! RI-B2PLYP D3BJ def2-TZVP def2-TZVP/C Opt VERYTIGHTSCF Grid7 FINALGrid7
B -0.757489 0.065594 0.000131
O 0.117190 -0.619520 -0.001239
H 0.640299 0.553926 0.001108
3
! RI-B2PLYP D3BJ def2-TZVP def2-TZVP/C Opt VERYTIGHTSCF Grid7 FINALGrid7
B -0.703910 0.089372 0.000179
O 0.100220 -0.671104 -0.001343
H 0.603689 0.581733 0.001164
3
! RI-B2PLYP D3BJ def2-TZVP def2-TZVP/C Opt VERYTIGHTSCF Grid7 FINALGrid7
B -0.650323 0.113134 0.000226
O 0.083234 -0.722684 -0.001446
H 0.567089 0.609550 0.001220
3
! RI-B2PLYP D3BJ def2-TZVP def2-TZVP/C Opt VERYTIGHTSCF Grid7 FINALGrid7
B -0.578151 0.105464 0.000211
O 0.032608 -0.768733 -0.001538
H 0.545543 0.663269 0.001327
3
! RI-B2PLYP D3BJ def2-TZVP def2-TZVP/C Opt VERYTIGHTSCF Grid7 FINALGrid7
B -0.505986 0.097738 0.000196
O -0.018046 -0.814746 -0.001630
H 0.524033 0.717008 0.001435
3
! RI-B2PLYP D3BJ def2-TZVP def2-TZVP/C Opt VERYTIGHTSCF Grid7 FINALGrid7
B -0.433828 0.089954 0.000180
O -0.068724 -0.860722 -0.001722
H 0.502552 0.770768 0.001542
3
! RI-B2PLYP D3BJ def2-TZVP def2-TZVP/C Opt VERYTIGHTSCF Grid7 FINALGrid7
B -0.398784 0.085107 0.000170
O -0.093784 -0.882583 -0.001766
H 0.492568 0.797476 0.001596
3
! RI-B2PLYP D3BJ def2-TZVP def2-TZVP/C Opt VERYTIGHTSCF Grid7 FINALGrid7
B -0.363742 0.080253 0.000161
O -0.118846 -0.904439 -0.001810
H 0.482588 0.824186 0.001649
3
! RI-B2PLYP D3BJ def2-TZVP def2-TZVP/C Opt VERYTIGHTSCF Grid7 FINALGrid7
B -0.328700 0.075393 0.000151
O -0.143909 -0.926292 -0.001853
H 0.472609 0.850899 0.001702
3
! RI-B2PLYP D3BJ def2-TZVP def2-TZVP/C Opt VERYTIGHTSCF Grid7 FINALGrid7
B -0.293659 0.070527 0.000141
O -0.168974 -0.948141 -0.001897
H 0.462633 0.877615 0.001756
3
! RI-B2PLYP D3BJ def2-TZVP def2-TZVP/C Opt VERYTIGHTSCF Grid7 FINALGrid7
B -0.225672 0.058801 0.000118
O -0.218242 -0.989643 -0.001980
H 0.443914 0.930842 0.001862
3
! RI-B2PLYP D3BJ def2-TZVP def2-TZVP/C Opt VERYTIGHTSCF Grid7 FINALGrid7
B -0.157689 0.047055 0.000094
O -0.267512 -1.031132 -0.002063
H 0.425201 0.984078 0.001969
3
! RI-B2PLYP D3BJ def2-TZVP def2-TZVP/C Opt VERYTIGHTSCF Grid7 FINALGrid7
B -0.103810 0.035251 0.000071
O -0.306992 -1.063174 -0.002127
H 0.410802 1.027922 0.002057
3
! RI-B2PLYP D3BJ def2-TZVP def2-TZVP/C Opt VERYTIGHTSCF Grid7 FINALGrid7
B -0.049932 0.023448 0.000047
O -0.346472 -1.095215 -0.002191
H 0.396404 1.071767 0.002144
3
! RI-B2PLYP D3BJ def2-TZVP def2-TZVP/C Opt VERYTIGHTSCF Grid7 FINALGrid7
B 0.003947 0.011645 0.000023
O -0.385952 -1.127256 -0.002255
H 0.382006 1.115611 0.002232
