3
! RI-B2PLYP D3BJ def2-TZVP def2-TZVP/C Opt VERYTIGHTSCF Grid7 FINALGrid7
B -1.088909 0.055900 0.000056
O -0.194066 -0.807620 -0.000807
Na 1.282976 0.751720 0.000752
3
! RI-B2PLYP D3BJ def2-TZVP def2-TZVP/C Opt VERYTIGHTSCF Grid7 FINALGrid7
B -0.992968 0.067944 0.000068
O -0.292178 -0.885342 -0.000885
Na 1.285146 0.817398 0.000817
3
! RI-B2PLYP D3BJ def2-TZVP def2-TZVP/C Opt VERYTIGHTSCF Grid7 FINALGrid7
B -0.896963 0.079184 0.000079
O -0.390768 -0.962388 -0.000962
Na 1.287730 0.883204 0.000883
3
! RI-B2PLYP D3BJ def2-TZVP def2-TZVP/C Opt VERYTIGHTSCF Grid7 FINALGrid7
B -0.863597 0.079706 0.000080
O -0.426392 -0.986255 -0.000986
Na 1.289988 0.906549 0.000906
3
! RI-B2PLYP D3BJ def2-TZVP def2-TZVP/C Opt VERYTIGHTSCF Grid7 FINALGrid7
B -0.830231 0.080215 0.000080
O -0.462021 -1.010112 -0.001010
Na 1.292252 0.929897 0.000930
3
! RI-B2PLYP D3BJ def2-TZVP def2-TZVP/C Opt VERYTIGHTSCF Grid7 FINALGrid7
B -0.796865 0.080711 0.000081
O -0.497656 -1.033959 -0.001034
Na 1.294520 0.953248 0.000953
3
! RI-B2PLYP D3BJ def2-TZVP def2-TZVP/C Opt VERYTIGHTSCF Grid7 FINALGrid7
B -0.763499 0.081195 0.000081
O -0.533295 -1.057796 -0.001057
Na 1.296794 0.976602 0.000976
3
! RI-B2PLYP D3BJ def2-TZVP def2-TZVP/C Opt VERYTIGHTSCF Grid7 FINALGrid7
B -0.726165 0.072203 0.000072
O -0.576164 -1.077062 -0.001077
Na 1.302328 1.004859 0.001005
3
! RI-B2PLYP D3BJ def2-TZVP def2-TZVP/C Opt VERYTIGHTSCF Grid7 FINALGrid7
B -0.688842 0.063159 0.000063
O -0.619041 -1.096286 -0.001096
Na 1.307883 1.033127 0.001033
3
! RI-B2PLYP D3BJ def2-TZVP def2-TZVP/C Opt VERYTIGHTSCF Grid7 FINALGrid7
B -0.651531 0.054064 0.000054
O -0.661925 -1.115471 -0.001115
Na 1.313456 1.061407 0.001061
3
! RI-B2PLYP D3BJ def2-TZVP def2-TZVP/C Opt VERYTIGHTSCF Grid7 FINALGrid7
B -0.598558 0.006782 0.000007
O -0.731453 -1.118043 -0.001118
Na 1.330011 1.111262 0.001111
3
! RI-B2PLYP D3BJ def2-TZVP def2-TZVP/C Opt VERYTIGHTSCF Grid7 FINALGrid7
B -0.545585 -0.040501 -0.000041
O -0.800981 -1.120616 -0.001120
Na 1.346566 1.161117 0.001161
3
! RI-B2PLYP D3BJ def2-TZVP def2-TZVP/C Opt VERYTIGHTSCF Grid7 FINALGrid7
B -0.492612 -0.087783 -0.000088
O -0.870508 -1.123189 -0.001123
Na 1.363120 1.210972 0.001211
3
! RI-B2PLYP D3BJ def2-TZVP def2-TZVP/C Opt VERYTIGHTSCF Grid7 FINALGrid7
B -0.459504 -0.117334 -0.000117
O -0.913963 -1.124797 -0.001125
Na 1.373467 1.242131 0.001242
3
! RI-B2PLYP D3BJ def2-TZVP def2-TZVP/C Opt VERYTIGHTSCF Grid7 FINALGrid7
B -0.426396 -0.146886 -0.000147
O -0.957418 -1.126405 -0.001126
Na 1.383814 1.273291 0.001273
3
! RI-B2PLYP D3BJ def2-TZVP def2-TZVP/C Opt VERYTIGHTSCF Grid7 FINALGrid7
B -0.393288 -0.176437 -0.000176
O -1.000872 -1.128013 -0.001128
Na 1.394161 1.304450 0.001304
3
! RI-B2PLYP D3BJ def2-TZVP def2-TZVP/C Opt VERYTIGHTSCF Grid7 FINALGrid7
B -0.360180 -0.205988 -0.000206
O -1.044327 -1.129621 -0.001129
Na 1.404507 1.335610 0.001335
3
! RI-B2PLYP D3BJ def2-TZVP def2-TZVP/C Opt VERYTIGHTSCF Grid7 FINALGrid7
B -0.333694 -0.229629 -0.000230
O -1.079091 -1.130908 -0.001131
Na 1.412785 1.360537 0.001360
3
! RI-B2PLYP D3BJ def2-TZVP def2-TZVP/C Opt VERYTIGHTSCF Grid7 FINALGrid7
B -0.307207 -0.253271 -0.000253
O -1.113855 -1.132194 -0.001132
Na 1.421062 1.385465 0.001385
3
! RI-B2PLYP D3BJ def2-TZVP def2-TZVP/C Opt VERYTIGHTSCF Grid7 FINALGrid7
B -0.280721 -0.276912 -0.000277
O -1.148619 -1.133480 -0.001133
Na 1.429340 1.410392 0.001410
