3
! RI-B2PLYP D3BJ def2-TZVP def2-TZVP/C Opt VERYTIGHTSCF Grid7 FINALGrid7
C -1.315324 -0.389772 -0.002349
N -0.187918 -0.055524 0.004638
Li 1.503241 0.445297 -0.002288
3
! RI-B2PLYP D3BJ def2-TZVP def2-TZVP/C Opt VERYTIGHTSCF Grid7 FINALGrid7
C -1.259870 -0.374272 -0.030946
N -0.220565 -0.063643 0.052434
Li 1.480434 0.437915 -0.021488
3
! RI-B2PLYP D3BJ def2-TZVP def2-TZVP/C Opt VERYTIGHTSCF Grid7 FINALGrid7
C -1.204416 -0.358772 -0.059542
N -0.253212 -0.071762 0.100230
Li 1.457628 0.430534 -0.040687
3
! RI-B2PLYP D3BJ def2-TZVP def2-TZVP/C Opt VERYTIGHTSCF Grid7 FINALGrid7
C -1.148961 -0.343272 -0.088139
N -0.285859 -0.079881 0.148025
Li 1.434821 0.423153 -0.059887
3
! RI-B2PLYP D3BJ def2-TZVP def2-TZVP/C Opt VERYTIGHTSCF Grid7 FINALGrid7
C -1.093507 -0.327772 -0.116735
N -0.318507 -0.088000 0.195821
Li 1.412014 0.415772 -0.079086
3
! RI-B2PLYP D3BJ def2-TZVP def2-TZVP/C Opt VERYTIGHTSCF Grid7 FINALGrid7
C -1.037982 -0.312248 -0.145249
N -0.351274 -0.096157 0.243519
Li 1.389256 0.408406 -0.098269
3
! RI-B2PLYP D3BJ def2-TZVP def2-TZVP/C Opt VERYTIGHTSCF Grid7 FINALGrid7
C -0.982457 -0.296725 -0.173764
N -0.384041 -0.104315 0.291216
Li 1.366498 0.401040 -0.117452
3
! RI-B2PLYP D3BJ def2-TZVP def2-TZVP/C Opt VERYTIGHTSCF Grid7 FINALGrid7
C -0.926932 -0.281201 -0.202278
N -0.416809 -0.112473 0.338913
Li 1.343740 0.393674 -0.136636
3
! RI-B2PLYP D3BJ def2-TZVP def2-TZVP/C Opt VERYTIGHTSCF Grid7 FINALGrid7
C -0.871406 -0.265677 -0.230791
N -0.449576 -0.120631 0.386610
Li 1.320982 0.386307 -0.155819
3
! RI-B2PLYP D3BJ def2-TZVP def2-TZVP/C Opt VERYTIGHTSCF Grid7 FINALGrid7
C -0.752994 -0.231908 -0.271215
N -0.532550 -0.142597 0.467098
Li 1.285544 0.374506 -0.195884
3
! RI-B2PLYP D3BJ def2-TZVP def2-TZVP/C Opt VERYTIGHTSCF Grid7 FINALGrid7
C -0.634495 -0.198107 -0.311402
N -0.615699 -0.164622 0.547389
Li 1.250194 0.362729 -0.235987
3
! RI-B2PLYP D3BJ def2-TZVP def2-TZVP/C Opt VERYTIGHTSCF Grid7 FINALGrid7
C -0.515915 -0.164272 -0.351329
N -0.699016 -0.186703 0.627490
Li 1.214931 0.350975 -0.276162
3
! RI-B2PLYP D3BJ def2-TZVP def2-TZVP/C Opt VERYTIGHTSCF Grid7 FINALGrid7
C -0.397262 -0.130408 -0.390984
N -0.782486 -0.208835 0.707421
Li 1.179747 0.339242 -0.316437
3
! RI-B2PLYP D3BJ def2-TZVP def2-TZVP/C Opt VERYTIGHTSCF Grid7 FINALGrid7
C -0.374889 -0.121790 -0.329800
N -0.840683 -0.226661 0.689465
Li 1.215573 0.348451 -0.359665
3
! RI-B2PLYP D3BJ def2-TZVP def2-TZVP/C Opt VERYTIGHTSCF Grid7 FINALGrid7
C -0.352517 -0.113173 -0.268616
N -0.898881 -0.244487 0.671510
Li 1.251398 0.357660 -0.402894
3
! RI-B2PLYP D3BJ def2-TZVP def2-TZVP/C Opt VERYTIGHTSCF Grid7 FINALGrid7
C -0.330144 -0.104556 -0.207433
N -0.957079 -0.262313 0.653554
Li 1.287224 0.366869 -0.446122
3
! RI-B2PLYP D3BJ def2-TZVP def2-TZVP/C Opt VERYTIGHTSCF Grid7 FINALGrid7
C -0.307772 -0.095939 -0.146249
N -1.015277 -0.280139 0.635599
Li 1.323049 0.376078 -0.489350
3
! RI-B2PLYP D3BJ def2-TZVP def2-TZVP/C Opt VERYTIGHTSCF Grid7 FINALGrid7
C -0.285399 -0.087321 -0.085065
N -1.073475 -0.297966 0.617643
Li 1.358874 0.385287 -0.532578
3
! RI-B2PLYP D3BJ def2-TZVP def2-TZVP/C Opt VERYTIGHTSCF Grid7 FINALGrid7
C -0.263027 -0.078704 -0.023882
N -1.131673 -0.315792 0.599687
Li 1.394700 0.394496 -0.575806
3
! RI-B2PLYP D3BJ def2-TZVP def2-TZVP/C Opt VERYTIGHTSCF Grid7 FINALGrid7
C -0.240654 -0.070087 0.037302
N -1.189871 -0.333618 0.581732
Li 1.430525 0.403705 -0.619034
3
! RI-B2PLYP D3BJ def2-TZVP def2-TZVP/C Opt VERYTIGHTSCF Grid7 FINALGrid7
C -0.218282 -0.061470 0.098486
N -1.248069 -0.351444 0.563776
Li 1.466351 0.412914 -0.662262
