3
! RI-B2PLYP D3BJ def2-TZVP def2-TZVP/C Opt VERYTIGHTSCF Grid7 FINALGrid7
C -1.417337 -0.441590 0.000079
N -0.294517 -0.092904 -0.000014
Na 1.711853 0.534495 -0.000064
3
! RI-B2PLYP D3BJ def2-TZVP def2-TZVP/C Opt VERYTIGHTSCF Grid7 FINALGrid7
C -1.323356 -0.351380 0.001708
N -0.337179 -0.201218 -0.002561
Na 1.660535 0.552598 0.000853
3
! RI-B2PLYP D3BJ def2-TZVP def2-TZVP/C Opt VERYTIGHTSCF Grid7 FINALGrid7
C -1.229323 -0.261200 0.003336
N -0.379920 -0.309494 -0.005106
Na 1.609243 0.570694 0.001770
3
! RI-B2PLYP D3BJ def2-TZVP def2-TZVP/C Opt VERYTIGHTSCF Grid7 FINALGrid7
C -1.135232 -0.171057 0.004962
N -0.422747 -0.417730 -0.007649
Na 1.557979 0.588787 0.002687
3
! RI-B2PLYP D3BJ def2-TZVP def2-TZVP/C Opt VERYTIGHTSCF Grid7 FINALGrid7
C -1.041074 -0.080962 0.006587
N -0.465668 -0.525923 -0.010190
Na 1.506742 0.606884 0.003603
3
! RI-B2PLYP D3BJ def2-TZVP def2-TZVP/C Opt VERYTIGHTSCF Grid7 FINALGrid7
C -0.936903 -0.001302 0.007847
N -0.524818 -0.626465 -0.012390
Na 1.461721 0.627767 0.004542
3
! RI-B2PLYP D3BJ def2-TZVP def2-TZVP/C Opt VERYTIGHTSCF Grid7 FINALGrid7
C -0.832638 0.078250 0.009104
N -0.584097 -0.726928 -0.014586
Na 1.416735 0.648679 0.005482
3
! RI-B2PLYP D3BJ def2-TZVP def2-TZVP/C Opt VERYTIGHTSCF Grid7 FINALGrid7
C -0.728277 0.157682 0.010357
N -0.643503 -0.827317 -0.016779
Na 1.371779 0.669635 0.006422
3
! RI-B2PLYP D3BJ def2-TZVP def2-TZVP/C Opt VERYTIGHTSCF Grid7 FINALGrid7
C -0.623820 0.236986 0.011606
N -0.703027 -0.927636 -0.018969
Na 1.326848 0.690650 0.007364
3
! RI-B2PLYP D3BJ def2-TZVP def2-TZVP/C Opt VERYTIGHTSCF Grid7 FINALGrid7
C -0.586212 0.187979 0.009975
N -0.768070 -0.923991 -0.018324
Na 1.354283 0.736012 0.008350
3
! RI-B2PLYP D3BJ def2-TZVP def2-TZVP/C Opt VERYTIGHTSCF Grid7 FINALGrid7
C -0.548604 0.138972 0.008344
N -0.833113 -0.920346 -0.017679
Na 1.381718 0.781373 0.009336
3
! RI-B2PLYP D3BJ def2-TZVP def2-TZVP/C Opt VERYTIGHTSCF Grid7 FINALGrid7
C -0.510996 0.089966 0.006712
N -0.898156 -0.916700 -0.017034
Na 1.409152 0.826735 0.010322
3
! RI-B2PLYP D3BJ def2-TZVP def2-TZVP/C Opt VERYTIGHTSCF Grid7 FINALGrid7
C -0.473388 0.040959 0.005081
N -0.963199 -0.913055 -0.016389
Na 1.436587 0.872096 0.011308
3
! RI-B2PLYP D3BJ def2-TZVP def2-TZVP/C Opt VERYTIGHTSCF Grid7 FINALGrid7
C -0.449883 0.010330 0.004062
N -1.003851 -0.910777 -0.015986
Na 1.453734 0.900447 0.011924
3
! RI-B2PLYP D3BJ def2-TZVP def2-TZVP/C Opt VERYTIGHTSCF Grid7 FINALGrid7
C -0.426378 -0.020299 0.003043
N -1.044503 -0.908499 -0.015583
Na 1.470881 0.928798 0.012540
3
! RI-B2PLYP D3BJ def2-TZVP def2-TZVP/C Opt VERYTIGHTSCF Grid7 FINALGrid7
C -0.402873 -0.050929 0.002023
N -1.085154 -0.906221 -0.015180
Na 1.488028 0.957149 0.013157
3
! RI-B2PLYP D3BJ def2-TZVP def2-TZVP/C Opt VERYTIGHTSCF Grid7 FINALGrid7
C -0.379368 -0.081558 0.001004
N -1.125806 -0.903942 -0.014777
Na 1.505175 0.985500 0.013773
3
! RI-B2PLYP D3BJ def2-TZVP def2-TZVP/C Opt VERYTIGHTSCF Grid7 FINALGrid7
C -0.360564 -0.106061 0.000188
N -1.158328 -0.902120 -0.014454
Na 1.518892 1.008181 0.014266
3
! RI-B2PLYP D3BJ def2-TZVP def2-TZVP/C Opt VERYTIGHTSCF Grid7 FINALGrid7
C -0.341760 -0.130565 -0.000627
N -1.190849 -0.900297 -0.014132
Na 1.532609 1.030862 0.014759
3
! RI-B2PLYP D3BJ def2-TZVP def2-TZVP/C Opt VERYTIGHTSCF Grid7 FINALGrid7
C -0.322956 -0.155068 -0.001443
N -1.223371 -0.898475 -0.013809
Na 1.546327 1.053543 0.015252
